.model d1n4003 D(IS=5E-11 N=1.33 CJO=30P VJ=.85 M=.5 RS=.13 TT=100N 
+                IBV=1e-9 BV=400 )
