.model dlimit D(IS=5E-15 N=1.0 CJO=0.0 )
